Version 4
SHEET 1 1112 744
WIRE -960 -240 -1184 -240
WIRE -848 -240 -960 -240
WIRE -720 -240 -784 -240
WIRE -960 -208 -960 -240
WIRE -1184 -160 -1184 -240
WIRE -1472 -96 -1648 -96
WIRE -1376 -96 -1472 -96
WIRE -1328 -96 -1376 -96
WIRE -960 -96 -960 -144
WIRE -960 -96 -1040 -96
WIRE -848 -96 -960 -96
WIRE -720 -96 -720 -240
WIRE -720 -96 -768 -96
WIRE -544 -96 -720 -96
WIRE -400 -96 -544 -96
WIRE -336 -96 -400 -96
WIRE 48 -96 -48 -96
WIRE 144 -96 48 -96
WIRE 288 -96 144 -96
WIRE -1376 -80 -1376 -96
WIRE -960 -80 -960 -96
WIRE 144 -80 144 -96
WIRE 48 -64 48 -96
WIRE 288 -64 288 -96
WIRE -1472 -48 -1472 -96
WIRE -400 0 -400 -16
WIRE -336 0 -400 0
WIRE -1376 32 -1376 0
WIRE -1328 32 -1376 32
WIRE -960 32 -1040 32
WIRE -880 32 -960 32
WIRE -720 32 -720 -96
WIRE -720 32 -800 32
WIRE 48 32 48 0
WIRE 144 32 144 0
WIRE 288 32 288 16
WIRE -960 64 -960 32
WIRE -720 80 -720 32
WIRE -192 128 -192 64
WIRE -1472 176 -1472 16
WIRE -1184 176 -1184 96
WIRE -960 176 -960 144
WIRE -720 176 -720 144
WIRE -544 224 -544 -96
WIRE -416 224 -544 224
WIRE -272 224 -416 224
WIRE -240 224 -272 224
WIRE -112 224 -160 224
WIRE 0 224 -112 224
WIRE 80 224 64 224
WIRE 160 224 80 224
WIRE 304 224 240 224
WIRE 448 224 304 224
WIRE 640 224 448 224
WIRE 448 240 448 224
WIRE 640 256 640 224
WIRE -544 288 -544 224
WIRE -416 288 -416 224
WIRE 128 304 32 304
WIRE 304 304 304 224
WIRE 304 304 128 304
WIRE 32 336 32 304
WIRE -272 352 -272 224
WIRE -112 352 -112 224
WIRE 128 352 128 304
WIRE 640 352 640 336
WIRE -416 448 -416 368
WIRE -352 448 -416 448
WIRE 32 448 32 416
WIRE 32 448 -32 448
WIRE 128 448 128 416
WIRE 128 448 32 448
WIRE 304 480 304 304
WIRE 32 496 32 448
WIRE -544 576 -544 352
WIRE -192 576 -192 544
WIRE -192 576 -544 576
WIRE 32 576 -192 576
WIRE 304 576 304 544
WIRE 304 576 32 576
WIRE 448 576 448 320
WIRE 448 576 304 576
WIRE -192 624 -192 576
FLAG -1184 176 0
FLAG -960 176 0
FLAG -720 176 0
FLAG -1472 176 0
FLAG -1648 -16 0
FLAG -960 -16 0
FLAG 48 32 0
FLAG -192 128 0
FLAG 144 32 0
FLAG 288 32 0
FLAG -192 624 0
FLAG 80 288 0
FLAG 640 352 0
SYMBOL PowerProducts\\LT1933 -1184 -32 R0
SYMATTR InstName U2
SYMBOL cap -1488 -48 R0
SYMATTR InstName C1
SYMATTR Value 2.2µF
SYMBOL cap -976 -208 R0
SYMATTR InstName C2
SYMATTR Value 0.1µF
SYMBOL ind -864 -80 R270
WINDOW 0 32 56 VTop 2
WINDOW 3 5 56 VBottom 2
SYMATTR InstName L1
SYMATTR Value 22µH
SYMBOL diode -784 -256 R90
WINDOW 0 0 32 VBottom 2
WINDOW 3 32 32 VTop 2
SYMATTR InstName D1
SYMATTR Value 1N4148
SYMBOL res -976 48 R0
SYMATTR InstName R4
SYMATTR Value 10k
SYMBOL res -784 16 R90
WINDOW 0 0 56 VBottom 2
WINDOW 3 32 56 VTop 2
SYMATTR InstName R5
SYMATTR Value 30k
SYMBOL cap -736 80 R0
SYMATTR InstName C3
SYMATTR Value 12µF
SYMBOL voltage -1648 -112 R0
WINDOW 123 0 0 Left 0
WINDOW 39 0 0 Left 0
SYMATTR InstName V4
SYMATTR Value PULSE(14 8 .01 .00001 .000001 .02 1)
SYMBOL schottky -944 -16 R180
WINDOW 0 24 64 Left 2
WINDOW 3 24 0 Left 2
SYMATTR InstName D2
SYMATTR Value 1N5818
SYMBOL res -1392 -96 R0
SYMATTR InstName R6
SYMATTR Value 1k
SYMBOL PowerProducts\\LT1121-3.3 -192 -48 R0
SYMATTR InstName U1
SYMBOL cap 32 -64 R0
SYMATTR InstName C4
SYMATTR Value 1µF
SYMBOL res -416 -112 R0
SYMATTR InstName R1
SYMATTR Value 1k
SYMBOL res 128 -96 R0
SYMATTR InstName R2
SYMATTR Value 1k
SYMBOL current 288 -64 R0
WINDOW 123 0 0 Left 0
WINDOW 39 0 0 Left 0
SYMATTR InstName I1
SYMATTR Value PULSE(0 .1 .01 .00001 .00001 .02)
SYMBOL PowerProducts\\LT1931A -192 448 R0
SYMATTR InstName U3
SYMBOL cap -560 288 R0
SYMATTR InstName C5
SYMATTR Value 4.7µF
SYMBOL ind -256 240 R270
WINDOW 0 32 56 VTop 2
WINDOW 3 5 56 VBottom 2
SYMATTR InstName L2
SYMATTR Value 10µH
SYMBOL ind 144 240 R270
WINDOW 0 32 56 VTop 2
WINDOW 3 5 56 VBottom 2
SYMATTR InstName L3
SYMATTR Value 10µH
SYMBOL cap 64 208 R90
WINDOW 0 0 32 VBottom 2
WINDOW 3 32 32 VTop 2
SYMATTR InstName C6
SYMATTR Value 1µF
SYMBOL cap 288 480 R0
SYMATTR InstName C7
SYMATTR Value 22µF
SYMBOL res 16 480 R0
SYMATTR InstName R3
SYMATTR Value 10k
SYMBOL res 16 320 R0
SYMATTR InstName R7
SYMATTR Value 29.4k
SYMBOL cap 112 352 R0
SYMATTR InstName C8
SYMATTR Value 220pF
SYMBOL schottky 64 224 R0
SYMATTR InstName D3
SYMATTR Value 1N5818
SYMBOL res -432 272 R0
SYMATTR InstName R8
SYMATTR Value 1k
SYMBOL res 432 224 R0
SYMATTR InstName R9
SYMATTR Value 1k
SYMBOL current 640 256 R0
WINDOW 123 0 0 Left 0
WINDOW 39 0 0 Left 0
SYMATTR InstName I2
SYMATTR Value PULSE(0 -.1 .01 .00001 .00001 .02)
TEXT -1624 520 Left 2 !.tran 1
TEXT -1312 232 Left 2 ;R5 = R4*(Vout/1.245-1)
TEXT 0 664 Left 2 ;R7 = (|Vout|-1.255)/((1.255/R3)+(8*10^-6))
